Version 4
SHEET 1 880 680
WIRE -560 -432 -720 -432
WIRE -400 -432 -432 -448
WIRE -400 -432 -480 -432
WIRE -336 -432 -400 -432
WIRE -304 -432 -336 -432
WIRE -208 -432 -224 -432
WIRE -112 -432 -208 -432
WIRE 0 -432 -112 -432
WIRE 128 -432 80 -432
WIRE 240 -432 128 -432
WIRE 288 -432 240 -432
WIRE -720 -400 -720 -432
WIRE -336 -384 -336 -432
WIRE -208 -384 -208 -432
WIRE -112 -384 -112 -432
WIRE 128 -368 128 -432
WIRE 240 -336 240 -432
WIRE -112 -320 -208 -320
WIRE -208 -288 -208 -320
WIRE -720 -160 -720 -320
WIRE -336 -160 -336 -320
WIRE -208 -160 -208 -208
WIRE 128 -160 128 -304
WIRE 240 -160 240 -256
FLAG 288 -432 OUT
IOPIN 288 -432 Out
FLAG -720 -160 0
FLAG -432 -448 IN
FLAG 240 -160 0
FLAG -336 -160 0
FLAG -208 -160 0
FLAG 128 -160 0
SYMBOL voltage -720 -416 R0
WINDOW 123 24 44 Left 2
WINDOW 39 0 0 Left 0
SYMATTR Value2 AC 1
SYMATTR InstName V1
SYMATTR Value ""
SYMBOL res 224 -352 R0
SYMATTR InstName R1
SYMATTR Value 100
SYMBOL cap -352 -384 R0
SYMATTR InstName C1
SYMATTR Value 1µ
SYMBOL cap -224 -384 R0
SYMATTR InstName C2
SYMATTR Value 330n
SYMBOL ind -224 -304 R0
SYMATTR InstName L1
SYMATTR Value 6.8µ
SYMATTR SpiceLine Ipk=0.55 Rser=0.25
SYMBOL res -464 -448 R90
WINDOW 0 0 56 VBottom 2
WINDOW 3 32 56 VTop 2
SYMATTR InstName R2
SYMATTR Value 100m
SYMBOL ind -320 -416 R270
WINDOW 0 32 56 VTop 2
WINDOW 3 5 56 VBottom 2
SYMATTR InstName L2
SYMATTR Value 100µ
SYMATTR SpiceLine Rser=3.5
SYMBOL cap 112 -368 R0
SYMATTR InstName C3
SYMATTR Value 10µ
SYMBOL ind -16 -416 R270
WINDOW 0 32 56 VTop 2
WINDOW 3 5 56 VBottom 2
SYMATTR InstName L3
SYMATTR Value 100µ
SYMATTR SpiceLine Rser=3.5
SYMBOL cap -128 -384 R0
SYMATTR InstName C4
SYMATTR Value 47n
TEXT -672 -280 Left 2 !.ac dec 1000 10 1e9
TEXT -976 -360 Left 2 ;DC/DC converter
TEXT 400 -368 Left 2 ;To linear regulator
